*SPEF "ieee 1481-1999"
*DESIGN "tiny_user_project"
*DATE "11:11:11 Fri 11 11, 1111"
*VENDOR "OpenRCX"
*PROGRAM "Parallel Extraction"
*VERSION "1.0"
*DESIGN_FLOW "NAME_SCOPE LOCAL" "PIN_CAP NONE"
*DIVIDER /
*DELIMITER :
*BUS_DELIMITER []
*T_UNIT 1 NS
*C_UNIT 1 PF
*R_UNIT 1 OHM
*L_UNIT 1 HENRY

*NAME_MAP
*1 io_in[0]
*2 io_in[10]
*3 io_in[11]
*4 io_in[12]
*5 io_in[13]
*6 io_in[14]
*7 io_in[15]
*8 io_in[16]
*9 io_in[17]
*10 io_in[18]
*11 io_in[19]
*12 io_in[1]
*13 io_in[20]
*14 io_in[21]
*15 io_in[22]
*16 io_in[23]
*17 io_in[24]
*18 io_in[25]
*19 io_in[26]
*20 io_in[27]
*21 io_in[28]
*22 io_in[29]
*23 io_in[2]
*24 io_in[30]
*25 io_in[31]
*26 io_in[32]
*27 io_in[33]
*28 io_in[34]
*29 io_in[35]
*30 io_in[36]
*31 io_in[37]
*32 io_in[3]
*33 io_in[4]
*34 io_in[5]
*35 io_in[6]
*36 io_in[7]
*37 io_in[8]
*38 io_in[9]
*39 net41
*40 net51
*41 net52
*42 net53
*43 net54
*44 net55
*45 net56
*46 net57
*47 net58
*48 net59
*49 net60
*50 net42
*51 net61
*52 net62
*53 net63
*54 net64
*55 net65
*56 net66
*57 net67
*58 net68
*59 net69
*60 net70
*61 net43
*62 net71
*63 net72
*64 net73
*65 net74
*66 net75
*67 net76
*68 net77
*69 net10
*70 net44
*71 net45
*72 net46
*73 net47
*74 net48
*75 net49
*76 net50
*77 net11
*78 net21
*79 net22
*80 net23
*81 net24
*82 net25
*83 net26
*84 net27
*85 net28
*86 io_out[18]
*87 io_out[19]
*88 net12
*89 io_out[20]
*90 io_out[21]
*91 io_out[22]
*92 io_out[23]
*93 io_out[24]
*94 io_out[25]
*95 net29
*96 net30
*97 net31
*98 net32
*99 net13
*100 net33
*101 net34
*102 net35
*103 net36
*104 net37
*105 net38
*106 net39
*107 net40
*108 net14
*109 net15
*110 net16
*111 net17
*112 net18
*113 net19
*114 net20
*117 _000_
*118 _001_
*119 _002_
*120 _003_
*121 _004_
*122 _005_
*123 _006_
*124 _007_
*125 _008_
*126 _009_
*127 _010_
*128 _011_
*129 _012_
*130 _013_
*131 _014_
*132 _015_
*133 _016_
*134 _017_
*135 _018_
*136 _019_
*137 _020_
*138 _021_
*139 _022_
*140 _023_
*141 _024_
*142 _025_
*143 _026_
*144 _027_
*145 _028_
*146 _029_
*147 _030_
*148 _031_
*149 _032_
*150 _033_
*151 _034_
*152 _035_
*153 _036_
*154 _037_
*155 _038_
*156 _039_
*157 _040_
*158 _041_
*159 _042_
*160 _043_
*161 _044_
*162 _045_
*163 _046_
*164 _047_
*165 _048_
*166 _049_
*167 _050_
*168 _051_
*169 _052_
*170 _053_
*171 _054_
*172 _055_
*173 _056_
*174 _057_
*175 _058_
*176 _059_
*177 _060_
*178 _061_
*179 _062_
*180 _063_
*181 _064_
*182 _065_
*183 _066_
*184 _067_
*185 _068_
*186 _069_
*187 _070_
*188 _071_
*189 _072_
*190 _073_
*191 _074_
*192 _075_
*193 _076_
*194 _077_
*195 _078_
*196 _079_
*197 _080_
*198 _081_
*199 _082_
*200 _083_
*201 _084_
*202 _085_
*203 _086_
*204 _087_
*205 _088_
*206 _089_
*207 _090_
*208 _091_
*209 _092_
*210 clknet_0_io_in[0]
*211 clknet_2_0__leaf_io_in[0]
*212 clknet_2_1__leaf_io_in[0]
*213 clknet_2_2__leaf_io_in[0]
*214 clknet_2_3__leaf_io_in[0]
*215 mod\._autorun
*216 mod\._d_io_out\[0\]
*217 mod\._d_io_out\[1\]
*218 mod\._d_io_out\[2\]
*219 mod\._d_io_out\[3\]
*220 mod\._d_io_out\[4\]
*221 mod\._d_io_out\[5\]
*222 mod\._d_io_out\[6\]
*223 mod\._d_io_out\[7\]
*224 mod\._q_cnt\[0\]
*225 mod\._q_cnt\[10\]
*226 mod\._q_cnt\[11\]
*227 mod\._q_cnt\[12\]
*228 mod\._q_cnt\[13\]
*229 mod\._q_cnt\[14\]
*230 mod\._q_cnt\[15\]
*231 mod\._q_cnt\[16\]
*232 mod\._q_cnt\[17\]
*233 mod\._q_cnt\[18\]
*234 mod\._q_cnt\[19\]
*235 mod\._q_cnt\[1\]
*236 mod\._q_cnt\[2\]
*237 mod\._q_cnt\[3\]
*238 mod\._q_cnt\[4\]
*239 mod\._q_cnt\[5\]
*240 mod\._q_cnt\[6\]
*241 mod\._q_cnt\[7\]
*242 mod\._q_cnt\[8\]
*243 mod\._q_cnt\[9\]
*244 mod\._q_index\[0\]
*245 mod\._q_index\[1\]
*246 net1
*247 net2
*248 net3
*249 net4
*250 net5
*251 net6
*252 net7
*253 net78
*254 net79
*255 net8
*256 net9
*257 ANTENNA__093__A
*258 ANTENNA__094__A
*259 ANTENNA__095__B
*260 ANTENNA__097__A
*261 ANTENNA__098__B1
*262 ANTENNA__102__A
*263 ANTENNA__103__A
*264 ANTENNA__105__A
*265 ANTENNA__105__B
*266 ANTENNA__107__A
*267 ANTENNA__107__B
*268 ANTENNA__108__A1
*269 ANTENNA__108__A2
*270 ANTENNA__108__B1
*271 ANTENNA__110__B
*272 ANTENNA__110__C
*273 ANTENNA__111__A
*274 ANTENNA__113__A
*275 ANTENNA__114__A
*276 ANTENNA__115__A1
*277 ANTENNA__116__B
*278 ANTENNA__117__B
*279 ANTENNA__117__C
*280 ANTENNA__119__B1
*281 ANTENNA__120__A
*282 ANTENNA__121__A2
*283 ANTENNA__121__B1
*284 ANTENNA__122__A2
*285 ANTENNA__123__A2
*286 ANTENNA__124__C
*287 ANTENNA__125__A
*288 ANTENNA__126__B1
*289 ANTENNA__130__C
*290 ANTENNA__131__A
*291 ANTENNA__133__B1
*292 ANTENNA__136__A
*293 ANTENNA__139__A
*294 ANTENNA__142__B1
*295 ANTENNA__145__A
*296 ANTENNA__149__A
*297 ANTENNA__151__B1
*298 ANTENNA__155__A
*299 ANTENNA__155__C
*300 ANTENNA__158__A
*301 ANTENNA__159__A2
*302 ANTENNA__160__B1
*303 ANTENNA__164__A
*304 ANTENNA__167__A
*305 ANTENNA__169__B1
*306 ANTENNA__174__A
*307 ANTENNA__176__A
*308 ANTENNA__179__A
*309 ANTENNA__181__A1
*310 ANTENNA__181__B1
*311 ANTENNA__182__A1
*312 ANTENNA__183__A1
*313 ANTENNA__184__A2
*314 ANTENNA__184__B1
*315 ANTENNA__186__D
*316 ANTENNA__195__D
*317 ANTENNA_clkbuf_0_io_in\[0\]_A
*318 ANTENNA_input1_A
*319 FILLER_0_109
*320 FILLER_0_113
*321 FILLER_0_125
*322 FILLER_0_137
*323 FILLER_0_141
*324 FILLER_0_15
*325 FILLER_0_153
*326 FILLER_0_165
*327 FILLER_0_169
*328 FILLER_0_181
*329 FILLER_0_193
*330 FILLER_0_197
*331 FILLER_0_209
*332 FILLER_0_221
*333 FILLER_0_225
*334 FILLER_0_237
*335 FILLER_0_249
*336 FILLER_0_253
*337 FILLER_0_265
*338 FILLER_0_27
*339 FILLER_0_277
*340 FILLER_0_281
*341 FILLER_0_29
*342 FILLER_0_293
*343 FILLER_0_3
*344 FILLER_0_41
*345 FILLER_0_53
*346 FILLER_0_57
*347 FILLER_0_69
*348 FILLER_0_81
*349 FILLER_0_85
*350 FILLER_0_97
*351 FILLER_10_109
*352 FILLER_10_121
*353 FILLER_10_133
*354 FILLER_10_139
*355 FILLER_10_141
*356 FILLER_10_153
*357 FILLER_10_165
*358 FILLER_10_177
*359 FILLER_10_189
*360 FILLER_10_195
*361 FILLER_10_197
*362 FILLER_10_20
*363 FILLER_10_209
*364 FILLER_10_221
*365 FILLER_10_233
*366 FILLER_10_245
*367 FILLER_10_251
*368 FILLER_10_253
*369 FILLER_10_265
*370 FILLER_10_277
*371 FILLER_10_289
*372 FILLER_10_29
*373 FILLER_10_293
*374 FILLER_10_297
*375 FILLER_10_3
*376 FILLER_10_41
*377 FILLER_10_53
*378 FILLER_10_65
*379 FILLER_10_77
*380 FILLER_10_8
*381 FILLER_10_83
*382 FILLER_10_85
*383 FILLER_10_97
*384 FILLER_11_105
*385 FILLER_11_111
*386 FILLER_11_113
*387 FILLER_11_125
*388 FILLER_11_137
*389 FILLER_11_149
*390 FILLER_11_15
*391 FILLER_11_161
*392 FILLER_11_167
*393 FILLER_11_169
*394 FILLER_11_181
*395 FILLER_11_193
*396 FILLER_11_205
*397 FILLER_11_217
*398 FILLER_11_223
*399 FILLER_11_225
*400 FILLER_11_237
*401 FILLER_11_249
*402 FILLER_11_261
*403 FILLER_11_27
*404 FILLER_11_273
*405 FILLER_11_279
*406 FILLER_11_281
*407 FILLER_11_293
*408 FILLER_11_3
*409 FILLER_11_39
*410 FILLER_11_51
*411 FILLER_11_55
*412 FILLER_11_57
*413 FILLER_11_69
*414 FILLER_11_81
*415 FILLER_11_93
*416 FILLER_12_109
*417 FILLER_12_121
*418 FILLER_12_133
*419 FILLER_12_139
*420 FILLER_12_141
*421 FILLER_12_15
*422 FILLER_12_153
*423 FILLER_12_165
*424 FILLER_12_177
*425 FILLER_12_189
*426 FILLER_12_195
*427 FILLER_12_197
*428 FILLER_12_209
*429 FILLER_12_221
*430 FILLER_12_233
*431 FILLER_12_245
*432 FILLER_12_251
*433 FILLER_12_253
*434 FILLER_12_265
*435 FILLER_12_27
*436 FILLER_12_277
*437 FILLER_12_289
*438 FILLER_12_29
*439 FILLER_12_293
*440 FILLER_12_297
*441 FILLER_12_3
*442 FILLER_12_41
*443 FILLER_12_53
*444 FILLER_12_65
*445 FILLER_12_77
*446 FILLER_12_83
*447 FILLER_12_85
*448 FILLER_12_97
*449 FILLER_13_105
*450 FILLER_13_111
*451 FILLER_13_113
*452 FILLER_13_125
*453 FILLER_13_137
*454 FILLER_13_149
*455 FILLER_13_161
*456 FILLER_13_167
*457 FILLER_13_169
*458 FILLER_13_181
*459 FILLER_13_193
*460 FILLER_13_20
*461 FILLER_13_205
*462 FILLER_13_217
*463 FILLER_13_223
*464 FILLER_13_225
*465 FILLER_13_237
*466 FILLER_13_249
*467 FILLER_13_261
*468 FILLER_13_273
*469 FILLER_13_279
*470 FILLER_13_281
*471 FILLER_13_293
*472 FILLER_13_297
*473 FILLER_13_3
*474 FILLER_13_32
*475 FILLER_13_44
*476 FILLER_13_57
*477 FILLER_13_69
*478 FILLER_13_8
*479 FILLER_13_81
*480 FILLER_13_93
*481 FILLER_14_109
*482 FILLER_14_121
*483 FILLER_14_133
*484 FILLER_14_139
*485 FILLER_14_141
*486 FILLER_14_153
*487 FILLER_14_165
*488 FILLER_14_177
*489 FILLER_14_189
*490 FILLER_14_195
*491 FILLER_14_197
*492 FILLER_14_20
*493 FILLER_14_209
*494 FILLER_14_221
*495 FILLER_14_233
*496 FILLER_14_245
*497 FILLER_14_251
*498 FILLER_14_253
*499 FILLER_14_265
*500 FILLER_14_277
*501 FILLER_14_289
*502 FILLER_14_29
*503 FILLER_14_297
*504 FILLER_14_3
*505 FILLER_14_41
*506 FILLER_14_53
*507 FILLER_14_65
*508 FILLER_14_77
*509 FILLER_14_8
*510 FILLER_14_83
*511 FILLER_14_85
*512 FILLER_14_97
*513 FILLER_15_105
*514 FILLER_15_111
*515 FILLER_15_113
*516 FILLER_15_125
*517 FILLER_15_137
*518 FILLER_15_149
*519 FILLER_15_15
*520 FILLER_15_161
*521 FILLER_15_167
*522 FILLER_15_169
*523 FILLER_15_181
*524 FILLER_15_193
*525 FILLER_15_205
*526 FILLER_15_217
*527 FILLER_15_223
*528 FILLER_15_225
*529 FILLER_15_237
*530 FILLER_15_249
*531 FILLER_15_261
*532 FILLER_15_27
*533 FILLER_15_273
*534 FILLER_15_279
*535 FILLER_15_281
*536 FILLER_15_293
*537 FILLER_15_3
*538 FILLER_15_39
*539 FILLER_15_51
*540 FILLER_15_55
*541 FILLER_15_57
*542 FILLER_15_69
*543 FILLER_15_81
*544 FILLER_15_93
*545 FILLER_16_109
*546 FILLER_16_121
*547 FILLER_16_133
*548 FILLER_16_139
*549 FILLER_16_141
*550 FILLER_16_15
*551 FILLER_16_153
*552 FILLER_16_165
*553 FILLER_16_177
*554 FILLER_16_189
*555 FILLER_16_195
*556 FILLER_16_197
*557 FILLER_16_209
*558 FILLER_16_221
*559 FILLER_16_233
*560 FILLER_16_245
*561 FILLER_16_251
*562 FILLER_16_253
*563 FILLER_16_265
*564 FILLER_16_27
*565 FILLER_16_277
*566 FILLER_16_289
*567 FILLER_16_29
*568 FILLER_16_293
*569 FILLER_16_297
*570 FILLER_16_3
*571 FILLER_16_41
*572 FILLER_16_53
*573 FILLER_16_65
*574 FILLER_16_77
*575 FILLER_16_83
*576 FILLER_16_85
*577 FILLER_16_97
*578 FILLER_17_105
*579 FILLER_17_111
*580 FILLER_17_113
*581 FILLER_17_125
*582 FILLER_17_137
*583 FILLER_17_149
*584 FILLER_17_161
*585 FILLER_17_167
*586 FILLER_17_169
*587 FILLER_17_181
*588 FILLER_17_193
*589 FILLER_17_20
*590 FILLER_17_205
*591 FILLER_17_217
*592 FILLER_17_223
*593 FILLER_17_225
*594 FILLER_17_237
*595 FILLER_17_249
*596 FILLER_17_261
*597 FILLER_17_273
*598 FILLER_17_279
*599 FILLER_17_281
*600 FILLER_17_293
*601 FILLER_17_297
*602 FILLER_17_3
*603 FILLER_17_32
*604 FILLER_17_44
*605 FILLER_17_57
*606 FILLER_17_69
*607 FILLER_17_8
*608 FILLER_17_81
*609 FILLER_17_93
*610 FILLER_18_109
*611 FILLER_18_121
*612 FILLER_18_133
*613 FILLER_18_139
*614 FILLER_18_141
*615 FILLER_18_153
*616 FILLER_18_165
*617 FILLER_18_177
*618 FILLER_18_189
*619 FILLER_18_195
*620 FILLER_18_197
*621 FILLER_18_20
*622 FILLER_18_209
*623 FILLER_18_221
*624 FILLER_18_233
*625 FILLER_18_245
*626 FILLER_18_251
*627 FILLER_18_253
*628 FILLER_18_265
*629 FILLER_18_277
*630 FILLER_18_289
*631 FILLER_18_29
*632 FILLER_18_297
*633 FILLER_18_3
*634 FILLER_18_41
*635 FILLER_18_53
*636 FILLER_18_65
*637 FILLER_18_77
*638 FILLER_18_8
*639 FILLER_18_83
*640 FILLER_18_85
*641 FILLER_18_97
*642 FILLER_19_105
*643 FILLER_19_111
*644 FILLER_19_113
*645 FILLER_19_125
*646 FILLER_19_137
*647 FILLER_19_149
*648 FILLER_19_15
*649 FILLER_19_161
*650 FILLER_19_167
*651 FILLER_19_169
*652 FILLER_19_181
*653 FILLER_19_193
*654 FILLER_19_205
*655 FILLER_19_217
*656 FILLER_19_223
*657 FILLER_19_225
*658 FILLER_19_237
*659 FILLER_19_249
*660 FILLER_19_261
*661 FILLER_19_27
*662 FILLER_19_273
*663 FILLER_19_279
*664 FILLER_19_281
*665 FILLER_19_293
*666 FILLER_19_3
*667 FILLER_19_39
*668 FILLER_19_51
*669 FILLER_19_55
*670 FILLER_19_57
*671 FILLER_19_69
*672 FILLER_19_81
*673 FILLER_19_93
*674 FILLER_1_105
*675 FILLER_1_111
*676 FILLER_1_113
*677 FILLER_1_125
*678 FILLER_1_137
*679 FILLER_1_149
*680 FILLER_1_15
*681 FILLER_1_161
*682 FILLER_1_167
*683 FILLER_1_169
*684 FILLER_1_181
*685 FILLER_1_193
*686 FILLER_1_205
*687 FILLER_1_217
*688 FILLER_1_223
*689 FILLER_1_225
*690 FILLER_1_237
*691 FILLER_1_249
*692 FILLER_1_261
*693 FILLER_1_27
*694 FILLER_1_273
*695 FILLER_1_279
*696 FILLER_1_281
*697 FILLER_1_293
*698 FILLER_1_297
*699 FILLER_1_3
*700 FILLER_1_39
*701 FILLER_1_51
*702 FILLER_1_55
*703 FILLER_1_57
*704 FILLER_1_69
*705 FILLER_1_81
*706 FILLER_1_93
*707 FILLER_20_109
*708 FILLER_20_121
*709 FILLER_20_133
*710 FILLER_20_139
*711 FILLER_20_141
*712 FILLER_20_153
*713 FILLER_20_165
*714 FILLER_20_177
*715 FILLER_20_189
*716 FILLER_20_195
*717 FILLER_20_197
*718 FILLER_20_20
*719 FILLER_20_209
*720 FILLER_20_221
*721 FILLER_20_233
*722 FILLER_20_245
*723 FILLER_20_251
*724 FILLER_20_253
*725 FILLER_20_265
*726 FILLER_20_277
*727 FILLER_20_289
*728 FILLER_20_29
*729 FILLER_20_293
*730 FILLER_20_297
*731 FILLER_20_3
*732 FILLER_20_41
*733 FILLER_20_53
*734 FILLER_20_65
*735 FILLER_20_77
*736 FILLER_20_8
*737 FILLER_20_83
*738 FILLER_20_85
*739 FILLER_20_97
*740 FILLER_21_105
*741 FILLER_21_111
*742 FILLER_21_113
*743 FILLER_21_125
*744 FILLER_21_137
*745 FILLER_21_149
*746 FILLER_21_15
*747 FILLER_21_161
*748 FILLER_21_167
*749 FILLER_21_169
*750 FILLER_21_181
*751 FILLER_21_193
*752 FILLER_21_205
*753 FILLER_21_217
*754 FILLER_21_223
*755 FILLER_21_225
*756 FILLER_21_237
*757 FILLER_21_249
*758 FILLER_21_261
*759 FILLER_21_27
*760 FILLER_21_273
*761 FILLER_21_279
*762 FILLER_21_281
*763 FILLER_21_293
*764 FILLER_21_297
*765 FILLER_21_3
*766 FILLER_21_39
*767 FILLER_21_51
*768 FILLER_21_55
*769 FILLER_21_57
*770 FILLER_21_69
*771 FILLER_21_81
*772 FILLER_21_93
*773 FILLER_22_109
*774 FILLER_22_121
*775 FILLER_22_133
*776 FILLER_22_139
*777 FILLER_22_141
*778 FILLER_22_153
*779 FILLER_22_165
*780 FILLER_22_177
*781 FILLER_22_189
*782 FILLER_22_195
*783 FILLER_22_197
*784 FILLER_22_20
*785 FILLER_22_209
*786 FILLER_22_221
*787 FILLER_22_233
*788 FILLER_22_245
*789 FILLER_22_251
*790 FILLER_22_253
*791 FILLER_22_265
*792 FILLER_22_277
*793 FILLER_22_289
*794 FILLER_22_29
*795 FILLER_22_297
*796 FILLER_22_3
*797 FILLER_22_41
*798 FILLER_22_53
*799 FILLER_22_65
*800 FILLER_22_77
*801 FILLER_22_8
*802 FILLER_22_83
*803 FILLER_22_85
*804 FILLER_22_97
*805 FILLER_23_105
*806 FILLER_23_111
*807 FILLER_23_113
*808 FILLER_23_125
*809 FILLER_23_137
*810 FILLER_23_149
*811 FILLER_23_15
*812 FILLER_23_161
*813 FILLER_23_167
*814 FILLER_23_169
*815 FILLER_23_181
*816 FILLER_23_193
*817 FILLER_23_205
*818 FILLER_23_217
*819 FILLER_23_223
*820 FILLER_23_225
*821 FILLER_23_237
*822 FILLER_23_249
*823 FILLER_23_261
*824 FILLER_23_27
*825 FILLER_23_273
*826 FILLER_23_279
*827 FILLER_23_281
*828 FILLER_23_293
*829 FILLER_23_297
*830 FILLER_23_3
*831 FILLER_23_39
*832 FILLER_23_51
*833 FILLER_23_55
*834 FILLER_23_57
*835 FILLER_23_69
*836 FILLER_23_81
*837 FILLER_23_93
*838 FILLER_24_109
*839 FILLER_24_121
*840 FILLER_24_133
*841 FILLER_24_139
*842 FILLER_24_141
*843 FILLER_24_153
*844 FILLER_24_165
*845 FILLER_24_177
*846 FILLER_24_189
*847 FILLER_24_195
*848 FILLER_24_197
*849 FILLER_24_20
*850 FILLER_24_209
*851 FILLER_24_221
*852 FILLER_24_233
*853 FILLER_24_245
*854 FILLER_24_251
*855 FILLER_24_253
*856 FILLER_24_265
*857 FILLER_24_277
*858 FILLER_24_289
*859 FILLER_24_29
*860 FILLER_24_297
*861 FILLER_24_3
*862 FILLER_24_41
*863 FILLER_24_53
*864 FILLER_24_65
*865 FILLER_24_77
*866 FILLER_24_8
*867 FILLER_24_83
*868 FILLER_24_85
*869 FILLER_24_97
*870 FILLER_25_105
*871 FILLER_25_111
*872 FILLER_25_113
*873 FILLER_25_125
*874 FILLER_25_137
*875 FILLER_25_149
*876 FILLER_25_161
*877 FILLER_25_167
*878 FILLER_25_169
*879 FILLER_25_181
*880 FILLER_25_193
*881 FILLER_25_20
*882 FILLER_25_205
*883 FILLER_25_217
*884 FILLER_25_223
*885 FILLER_25_225
*886 FILLER_25_237
*887 FILLER_25_249
*888 FILLER_25_261
*889 FILLER_25_273
*890 FILLER_25_279
*891 FILLER_25_281
*892 FILLER_25_293
*893 FILLER_25_297
*894 FILLER_25_3
*895 FILLER_25_32
*896 FILLER_25_44
*897 FILLER_25_57
*898 FILLER_25_69
*899 FILLER_25_8
*900 FILLER_25_81
*901 FILLER_25_93
*902 FILLER_26_109
*903 FILLER_26_121
*904 FILLER_26_133
*905 FILLER_26_139
*906 FILLER_26_141
*907 FILLER_26_15
*908 FILLER_26_153
*909 FILLER_26_165
*910 FILLER_26_177
*911 FILLER_26_189
*912 FILLER_26_195
*913 FILLER_26_197
*914 FILLER_26_209
*915 FILLER_26_221
*916 FILLER_26_233
*917 FILLER_26_245
*918 FILLER_26_251
*919 FILLER_26_253
*920 FILLER_26_265
*921 FILLER_26_27
*922 FILLER_26_277
*923 FILLER_26_289
*924 FILLER_26_29
*925 FILLER_26_297
*926 FILLER_26_3
*927 FILLER_26_41
*928 FILLER_26_53
*929 FILLER_26_65
*930 FILLER_26_77
*931 FILLER_26_83
*932 FILLER_26_85
*933 FILLER_26_97
*934 FILLER_27_105
*935 FILLER_27_111
*936 FILLER_27_113
*937 FILLER_27_125
*938 FILLER_27_137
*939 FILLER_27_149
*940 FILLER_27_15
*941 FILLER_27_161
*942 FILLER_27_167
*943 FILLER_27_169
*944 FILLER_27_181
*945 FILLER_27_193
*946 FILLER_27_205
*947 FILLER_27_217
*948 FILLER_27_223
*949 FILLER_27_225
*950 FILLER_27_237
*951 FILLER_27_249
*952 FILLER_27_261
*953 FILLER_27_27
*954 FILLER_27_273
*955 FILLER_27_279
*956 FILLER_27_281
*957 FILLER_27_293
*958 FILLER_27_297
*959 FILLER_27_3
*960 FILLER_27_39
*961 FILLER_27_51
*962 FILLER_27_55
*963 FILLER_27_57
*964 FILLER_27_69
*965 FILLER_27_81
*966 FILLER_27_93
*967 FILLER_28_109
*968 FILLER_28_121
*969 FILLER_28_133
*970 FILLER_28_139
*971 FILLER_28_141
*972 FILLER_28_153
*973 FILLER_28_165
*974 FILLER_28_177
*975 FILLER_28_189
*976 FILLER_28_195
*977 FILLER_28_197
*978 FILLER_28_20
*979 FILLER_28_209
*980 FILLER_28_221
*981 FILLER_28_233
*982 FILLER_28_245
*983 FILLER_28_251
*984 FILLER_28_253
*985 FILLER_28_265
*986 FILLER_28_277
*987 FILLER_28_289
*988 FILLER_28_29
*989 FILLER_28_293
*990 FILLER_28_297
*991 FILLER_28_3
*992 FILLER_28_41
*993 FILLER_28_53
*994 FILLER_28_65
*995 FILLER_28_77
*996 FILLER_28_8
*997 FILLER_28_83
*998 FILLER_28_85
*999 FILLER_28_97
*1000 FILLER_29_105
*1001 FILLER_29_111
*1002 FILLER_29_113
*1003 FILLER_29_125
*1004 FILLER_29_137
*1005 FILLER_29_149
*1006 FILLER_29_161
*1007 FILLER_29_167
*1008 FILLER_29_169
*1009 FILLER_29_181
*1010 FILLER_29_193
*1011 FILLER_29_20
*1012 FILLER_29_205
*1013 FILLER_29_217
*1014 FILLER_29_223
*1015 FILLER_29_225
*1016 FILLER_29_237
*1017 FILLER_29_249
*1018 FILLER_29_261
*1019 FILLER_29_273
*1020 FILLER_29_279
*1021 FILLER_29_281
*1022 FILLER_29_293
*1023 FILLER_29_3
*1024 FILLER_29_32
*1025 FILLER_29_44
*1026 FILLER_29_57
*1027 FILLER_29_69
*1028 FILLER_29_8
*1029 FILLER_29_81
*1030 FILLER_29_93
*1031 FILLER_2_109
*1032 FILLER_2_121
*1033 FILLER_2_133
*1034 FILLER_2_139
*1035 FILLER_2_141
*1036 FILLER_2_153
*1037 FILLER_2_165
*1038 FILLER_2_177
*1039 FILLER_2_189
*1040 FILLER_2_195
*1041 FILLER_2_197
*1042 FILLER_2_20
*1043 FILLER_2_209
*1044 FILLER_2_221
*1045 FILLER_2_233
*1046 FILLER_2_245
*1047 FILLER_2_251
*1048 FILLER_2_253
*1049 FILLER_2_265
*1050 FILLER_2_277
*1051 FILLER_2_289
*1052 FILLER_2_29
*1053 FILLER_2_293
*1054 FILLER_2_297
*1055 FILLER_2_3
*1056 FILLER_2_41
*1057 FILLER_2_53
*1058 FILLER_2_65
*1059 FILLER_2_77
*1060 FILLER_2_8
*1061 FILLER_2_83
*1062 FILLER_2_85
*1063 FILLER_2_97
*1064 FILLER_30_109
*1065 FILLER_30_121
*1066 FILLER_30_133
*1067 FILLER_30_139
*1068 FILLER_30_141
*1069 FILLER_30_15
*1070 FILLER_30_153
*1071 FILLER_30_165
*1072 FILLER_30_177
*1073 FILLER_30_189
*1074 FILLER_30_195
*1075 FILLER_30_197
*1076 FILLER_30_209
*1077 FILLER_30_221
*1078 FILLER_30_233
*1079 FILLER_30_245
*1080 FILLER_30_251
*1081 FILLER_30_253
*1082 FILLER_30_265
*1083 FILLER_30_27
*1084 FILLER_30_277
*1085 FILLER_30_289
*1086 FILLER_30_29
*1087 FILLER_30_297
*1088 FILLER_30_3
*1089 FILLER_30_41
*1090 FILLER_30_53
*1091 FILLER_30_65
*1092 FILLER_30_77
*1093 FILLER_30_83
*1094 FILLER_30_85
*1095 FILLER_30_97
*1096 FILLER_31_105
*1097 FILLER_31_111
*1098 FILLER_31_113
*1099 FILLER_31_125
*1100 FILLER_31_137
*1101 FILLER_31_149
*1102 FILLER_31_15
*1103 FILLER_31_161
*1104 FILLER_31_167
*1105 FILLER_31_169
*1106 FILLER_31_181
*1107 FILLER_31_193
*1108 FILLER_31_205
*1109 FILLER_31_217
*1110 FILLER_31_223
*1111 FILLER_31_225
*1112 FILLER_31_237
*1113 FILLER_31_249
*1114 FILLER_31_261
*1115 FILLER_31_27
*1116 FILLER_31_273
*1117 FILLER_31_279
*1118 FILLER_31_281
*1119 FILLER_31_293
*1120 FILLER_31_297
*1121 FILLER_31_3
*1122 FILLER_31_39
*1123 FILLER_31_51
*1124 FILLER_31_55
*1125 FILLER_31_57
*1126 FILLER_31_69
*1127 FILLER_31_81
*1128 FILLER_31_93
*1129 FILLER_32_109
*1130 FILLER_32_121
*1131 FILLER_32_133
*1132 FILLER_32_139
*1133 FILLER_32_141
*1134 FILLER_32_153
*1135 FILLER_32_165
*1136 FILLER_32_177
*1137 FILLER_32_189
*1138 FILLER_32_195
*1139 FILLER_32_197
*1140 FILLER_32_20
*1141 FILLER_32_209
*1142 FILLER_32_221
*1143 FILLER_32_233
*1144 FILLER_32_245
*1145 FILLER_32_251
*1146 FILLER_32_253
*1147 FILLER_32_265
*1148 FILLER_32_277
*1149 FILLER_32_289
*1150 FILLER_32_29
*1151 FILLER_32_293
*1152 FILLER_32_297
*1153 FILLER_32_3
*1154 FILLER_32_41
*1155 FILLER_32_53
*1156 FILLER_32_65
*1157 FILLER_32_77
*1158 FILLER_32_8
*1159 FILLER_32_83
*1160 FILLER_32_85
*1161 FILLER_32_97
*1162 FILLER_33_105
*1163 FILLER_33_111
*1164 FILLER_33_113
*1165 FILLER_33_125
*1166 FILLER_33_137
*1167 FILLER_33_149
*1168 FILLER_33_161
*1169 FILLER_33_167
*1170 FILLER_33_169
*1171 FILLER_33_181
*1172 FILLER_33_193
*1173 FILLER_33_20
*1174 FILLER_33_205
*1175 FILLER_33_217
*1176 FILLER_33_223
*1177 FILLER_33_225
*1178 FILLER_33_237
*1179 FILLER_33_249
*1180 FILLER_33_261
*1181 FILLER_33_273
*1182 FILLER_33_279
*1183 FILLER_33_281
*1184 FILLER_33_293
*1185 FILLER_33_3
*1186 FILLER_33_32
*1187 FILLER_33_44
*1188 FILLER_33_57
*1189 FILLER_33_69
*1190 FILLER_33_8
*1191 FILLER_33_81
*1192 FILLER_33_93
*1193 FILLER_34_109
*1194 FILLER_34_121
*1195 FILLER_34_133
*1196 FILLER_34_139
*1197 FILLER_34_141
*1198 FILLER_34_15
*1199 FILLER_34_153
*1200 FILLER_34_165
*1201 FILLER_34_177
*1202 FILLER_34_189
*1203 FILLER_34_195
*1204 FILLER_34_197
*1205 FILLER_34_209
*1206 FILLER_34_221
*1207 FILLER_34_233
*1208 FILLER_34_245
*1209 FILLER_34_251
*1210 FILLER_34_253
*1211 FILLER_34_265
*1212 FILLER_34_27
*1213 FILLER_34_277
*1214 FILLER_34_289
*1215 FILLER_34_29
*1216 FILLER_34_297
*1217 FILLER_34_3
*1218 FILLER_34_41
*1219 FILLER_34_53
*1220 FILLER_34_65
*1221 FILLER_34_77
*1222 FILLER_34_83
*1223 FILLER_34_85
*1224 FILLER_34_97
*1225 FILLER_35_105
*1226 FILLER_35_111
*1227 FILLER_35_113
*1228 FILLER_35_125
*1229 FILLER_35_137
*1230 FILLER_35_149
*1231 FILLER_35_161
*1232 FILLER_35_167
*1233 FILLER_35_169
*1234 FILLER_35_181
*1235 FILLER_35_193
*1236 FILLER_35_20
*1237 FILLER_35_205
*1238 FILLER_35_217
*1239 FILLER_35_223
*1240 FILLER_35_225
*1241 FILLER_35_237
*1242 FILLER_35_249
*1243 FILLER_35_261
*1244 FILLER_35_273
*1245 FILLER_35_279
*1246 FILLER_35_281
*1247 FILLER_35_293
*1248 FILLER_35_297
*1249 FILLER_35_3
*1250 FILLER_35_32
*1251 FILLER_35_44
*1252 FILLER_35_57
*1253 FILLER_35_69
*1254 FILLER_35_8
*1255 FILLER_35_81
*1256 FILLER_35_93
*1257 FILLER_36_109
*1258 FILLER_36_121
*1259 FILLER_36_133
*1260 FILLER_36_139
*1261 FILLER_36_141
*1262 FILLER_36_15
*1263 FILLER_36_153
*1264 FILLER_36_165
*1265 FILLER_36_177
*1266 FILLER_36_189
*1267 FILLER_36_195
*1268 FILLER_36_197
*1269 FILLER_36_209
*1270 FILLER_36_221
*1271 FILLER_36_233
*1272 FILLER_36_245
*1273 FILLER_36_251
*1274 FILLER_36_253
*1275 FILLER_36_265
*1276 FILLER_36_27
*1277 FILLER_36_277
*1278 FILLER_36_289
*1279 FILLER_36_29
*1280 FILLER_36_293
*1281 FILLER_36_297
*1282 FILLER_36_3
*1283 FILLER_36_41
*1284 FILLER_36_53
*1285 FILLER_36_65
*1286 FILLER_36_77
*1287 FILLER_36_83
*1288 FILLER_36_85
*1289 FILLER_36_97
*1290 FILLER_37_105
*1291 FILLER_37_111
*1292 FILLER_37_113
*1293 FILLER_37_125
*1294 FILLER_37_137
*1295 FILLER_37_149
*1296 FILLER_37_161
*1297 FILLER_37_167
*1298 FILLER_37_169
*1299 FILLER_37_181
*1300 FILLER_37_193
*1301 FILLER_37_20
*1302 FILLER_37_205
*1303 FILLER_37_217
*1304 FILLER_37_223
*1305 FILLER_37_225
*1306 FILLER_37_237
*1307 FILLER_37_249
*1308 FILLER_37_261
*1309 FILLER_37_273
*1310 FILLER_37_279
*1311 FILLER_37_281
*1312 FILLER_37_293
*1313 FILLER_37_3
*1314 FILLER_37_32
*1315 FILLER_37_44
*1316 FILLER_37_57
*1317 FILLER_37_69
*1318 FILLER_37_8
*1319 FILLER_37_81
*1320 FILLER_37_93
*1321 FILLER_38_105
*1322 FILLER_38_117
*1323 FILLER_38_129
*1324 FILLER_38_137
*1325 FILLER_38_141
*1326 FILLER_38_15
*1327 FILLER_38_153
*1328 FILLER_38_165
*1329 FILLER_38_177
*1330 FILLER_38_189
*1331 FILLER_38_195
*1332 FILLER_38_197
*1333 FILLER_38_209
*1334 FILLER_38_221
*1335 FILLER_38_233
*1336 FILLER_38_245
*1337 FILLER_38_251
*1338 FILLER_38_253
*1339 FILLER_38_265
*1340 FILLER_38_27
*1341 FILLER_38_277
*1342 FILLER_38_289
*1343 FILLER_38_29
*1344 FILLER_38_293
*1345 FILLER_38_297
*1346 FILLER_38_3
*1347 FILLER_38_41
*1348 FILLER_38_53
*1349 FILLER_38_65
*1350 FILLER_38_77
*1351 FILLER_38_83
*1352 FILLER_38_85
*1353 FILLER_38_93
*1354 FILLER_39_103
*1355 FILLER_39_109
*1356 FILLER_39_113
*1357 FILLER_39_125
*1358 FILLER_39_137
*1359 FILLER_39_149
*1360 FILLER_39_161
*1361 FILLER_39_167
*1362 FILLER_39_169
*1363 FILLER_39_181
*1364 FILLER_39_193
*1365 FILLER_39_20
*1366 FILLER_39_205
*1367 FILLER_39_217
*1368 FILLER_39_223
*1369 FILLER_39_225
*1370 FILLER_39_237
*1371 FILLER_39_249
*1372 FILLER_39_261
*1373 FILLER_39_273
*1374 FILLER_39_279
*1375 FILLER_39_281
*1376 FILLER_39_293
*1377 FILLER_39_3
*1378 FILLER_39_32
*1379 FILLER_39_36
*1380 FILLER_39_48
*1381 FILLER_39_57
*1382 FILLER_39_61
*1383 FILLER_39_64
*1384 FILLER_39_76
*1385 FILLER_39_8
*1386 FILLER_39_84
*1387 FILLER_39_90
*1388 FILLER_39_97
*1389 FILLER_3_105
*1390 FILLER_3_111
*1391 FILLER_3_113
*1392 FILLER_3_125
*1393 FILLER_3_137
*1394 FILLER_3_149
*1395 FILLER_3_161
*1396 FILLER_3_167
*1397 FILLER_3_169
*1398 FILLER_3_181
*1399 FILLER_3_193
*1400 FILLER_3_20
*1401 FILLER_3_205
*1402 FILLER_3_217
*1403 FILLER_3_223
*1404 FILLER_3_225
*1405 FILLER_3_237
*1406 FILLER_3_249
*1407 FILLER_3_261
*1408 FILLER_3_273
*1409 FILLER_3_279
*1410 FILLER_3_281
*1411 FILLER_3_297
*1412 FILLER_3_3
*1413 FILLER_3_32
*1414 FILLER_3_44
*1415 FILLER_3_57
*1416 FILLER_3_69
*1417 FILLER_3_8
*1418 FILLER_3_81
*1419 FILLER_3_93
*1420 FILLER_40_106
*1421 FILLER_40_112
*1422 FILLER_40_122
*1423 FILLER_40_134
*1424 FILLER_40_141
*1425 FILLER_40_153
*1426 FILLER_40_16
*1427 FILLER_40_165
*1428 FILLER_40_177
*1429 FILLER_40_189
*1430 FILLER_40_195
*1431 FILLER_40_197
*1432 FILLER_40_209
*1433 FILLER_40_221
*1434 FILLER_40_233
*1435 FILLER_40_245
*1436 FILLER_40_251
*1437 FILLER_40_253
*1438 FILLER_40_265
*1439 FILLER_40_277
*1440 FILLER_40_289
*1441 FILLER_40_29
*1442 FILLER_40_293
*1443 FILLER_40_297
*1444 FILLER_40_3
*1445 FILLER_40_33
*1446 FILLER_40_36
*1447 FILLER_40_44
*1448 FILLER_40_56
*1449 FILLER_40_59
*1450 FILLER_40_63
*1451 FILLER_40_66
*1452 FILLER_40_74
*1453 FILLER_40_78
*1454 FILLER_40_8
*1455 FILLER_40_82
*1456 FILLER_40_85
*1457 FILLER_40_91
*1458 FILLER_40_99
*1459 FILLER_41_107
*1460 FILLER_41_111
*1461 FILLER_41_113
*1462 FILLER_41_119
*1463 FILLER_41_12
*1464 FILLER_41_125
*1465 FILLER_41_131
*1466 FILLER_41_134
*1467 FILLER_41_146
*1468 FILLER_41_158
*1469 FILLER_41_166
*1470 FILLER_41_169
*1471 FILLER_41_18
*1472 FILLER_41_181
*1473 FILLER_41_193
*1474 FILLER_41_205
*1475 FILLER_41_217
*1476 FILLER_41_223
*1477 FILLER_41_225
*1478 FILLER_41_237
*1479 FILLER_41_249
*1480 FILLER_41_26
*1481 FILLER_41_261
*1482 FILLER_41_273
*1483 FILLER_41_279
*1484 FILLER_41_281
*1485 FILLER_41_293
*1486 FILLER_41_3
*1487 FILLER_41_32
*1488 FILLER_41_38
*1489 FILLER_41_46
*1490 FILLER_41_54
*1491 FILLER_41_57
*1492 FILLER_41_64
*1493 FILLER_41_68
*1494 FILLER_41_73
*1495 FILLER_41_82
*1496 FILLER_41_9
*1497 FILLER_41_93
*1498 FILLER_41_99
*1499 FILLER_42_108
*1500 FILLER_42_114
*1501 FILLER_42_120
*1502 FILLER_42_128
*1503 FILLER_42_134
*1504 FILLER_42_141
*1505 FILLER_42_145
*1506 FILLER_42_15
*1507 FILLER_42_157
*1508 FILLER_42_169
*1509 FILLER_42_181
*1510 FILLER_42_193
*1511 FILLER_42_197
*1512 FILLER_42_209
*1513 FILLER_42_221
*1514 FILLER_42_23
*1515 FILLER_42_233
*1516 FILLER_42_245
*1517 FILLER_42_251
*1518 FILLER_42_253
*1519 FILLER_42_26
*1520 FILLER_42_265
*1521 FILLER_42_277
*1522 FILLER_42_289
*1523 FILLER_42_29
*1524 FILLER_42_293
*1525 FILLER_42_297
*1526 FILLER_42_3
*1527 FILLER_42_33
*1528 FILLER_42_36
*1529 FILLER_42_42
*1530 FILLER_42_46
*1531 FILLER_42_49
*1532 FILLER_42_56
*1533 FILLER_42_64
*1534 FILLER_42_72
*1535 FILLER_42_8
*1536 FILLER_42_82
*1537 FILLER_42_85
*1538 FILLER_42_89
*1539 FILLER_42_93
*1540 FILLER_42_99
*1541 FILLER_43_103
*1542 FILLER_43_109
*1543 FILLER_43_113
*1544 FILLER_43_121
*1545 FILLER_43_130
*1546 FILLER_43_137
*1547 FILLER_43_143
*1548 FILLER_43_149
*1549 FILLER_43_16
*1550 FILLER_43_161
*1551 FILLER_43_167
*1552 FILLER_43_169
*1553 FILLER_43_175
*1554 FILLER_43_181
*1555 FILLER_43_193
*1556 FILLER_43_205
*1557 FILLER_43_217
*1558 FILLER_43_223
*1559 FILLER_43_225
*1560 FILLER_43_23
*1561 FILLER_43_237
*1562 FILLER_43_249
*1563 FILLER_43_261
*1564 FILLER_43_273
*1565 FILLER_43_279
*1566 FILLER_43_281
*1567 FILLER_43_293
*1568 FILLER_43_297
*1569 FILLER_43_3
*1570 FILLER_43_34
*1571 FILLER_43_40
*1572 FILLER_43_44
*1573 FILLER_43_54
*1574 FILLER_43_57
*1575 FILLER_43_61
*1576 FILLER_43_69
*1577 FILLER_43_9
*1578 FILLER_43_93
*1579 FILLER_44_103
*1580 FILLER_44_111
*1581 FILLER_44_121
*1582 FILLER_44_130
*1583 FILLER_44_138
*1584 FILLER_44_141
*1585 FILLER_44_146
*1586 FILLER_44_152
*1587 FILLER_44_158
*1588 FILLER_44_16
*1589 FILLER_44_170
*1590 FILLER_44_182
*1591 FILLER_44_194
*1592 FILLER_44_197
*1593 FILLER_44_209
*1594 FILLER_44_221
*1595 FILLER_44_233
*1596 FILLER_44_24
*1597 FILLER_44_245
*1598 FILLER_44_251
*1599 FILLER_44_253
*1600 FILLER_44_265
*1601 FILLER_44_277
*1602 FILLER_44_289
*1603 FILLER_44_29
*1604 FILLER_44_297
*1605 FILLER_44_3
*1606 FILLER_44_34
*1607 FILLER_44_42
*1608 FILLER_44_54
*1609 FILLER_44_62
*1610 FILLER_44_74
*1611 FILLER_44_8
*1612 FILLER_44_82
*1613 FILLER_44_85
*1614 FILLER_45_104
*1615 FILLER_45_110
*1616 FILLER_45_113
*1617 FILLER_45_125
*1618 FILLER_45_135
*1619 FILLER_45_144
*1620 FILLER_45_152
*1621 FILLER_45_160
*1622 FILLER_45_166
*1623 FILLER_45_169
*1624 FILLER_45_17
*1625 FILLER_45_181
*1626 FILLER_45_193
*1627 FILLER_45_205
*1628 FILLER_45_21
*1629 FILLER_45_217
*1630 FILLER_45_223
*1631 FILLER_45_225
*1632 FILLER_45_237
*1633 FILLER_45_249
*1634 FILLER_45_26